LTspice 24.1.4 for Windows
Circuit: C:\Users\Tachi\Documents\robomaster_hardware\SupercapManager\SPICE_sims\Housekeeping Power.net
Start Time: Thu Mar 20 22:09:39 2025
solver = Normal
Maximum thread count: 8
tnom = 27
temp = 27
method = modified trap
d_d1: Emission coefficient, N=0.01, too small, limited to 0.1
Direct Newton iteration for .op point succeeded.
Changing Tseed to 1e-08
Changing Tseed to 1e-10

Simulation stopped by user.
Total elapsed time: 36.758 seconds.

Files loaded:
C:\Users\Tachi\Documents\robomaster_hardware\SupercapManager\SPICE_sims\Housekeeping Power.net
C:\Users\Tachi\AppData\Local\LTspice\lib\cmp\standard.dio
C:\Users\Tachi\Documents\robomaster_hardware\SupercapManager\SPICE_sims\libraries\MC33063A-Q1_TRANS.lib

